@<TRIPOS>MOLECULE
MOL
    9     8     1     0     0
SMALL
resp


@<TRIPOS>ATOM
      1 C1           1.3660    -0.3390     0.0000 c3         1 MOL      -0.562507
      2 H1           1.8720     0.0650    -0.8820 hc         1 MOL       0.152461
      3 H2           1.4680    -1.4290     0.0010 hc         1 MOL       0.152461
      4 H3           1.8720     0.0660     0.8810 hc         1 MOL       0.152461
      5 C2          -0.0780     0.1470     0.0000 c          1 MOL       0.962343
      6 O1          -0.3660     1.3340     0.0000 o          1 MOL      -0.652877
      7 N1          -1.0300    -0.8360    -0.0000 n          1 MOL      -1.092247
      8 H4          -2.0020    -0.5590     0.0000 hn         1 MOL       0.443953
      9 H5          -0.8050    -1.8180     0.0000 hn         1 MOL       0.443953
@<TRIPOS>BOND
     1     1     2 1   
     2     1     3 1   
     3     1     4 1   
     4     1     5 1   
     5     5     6 2   
     6     5     7 1   
     7     7     8 1   
     8     7     9 1   
@<TRIPOS>SUBSTRUCTURE
     1 MOL         1 TEMP              0 ****  ****    0 ROOT
